Version 4
SHEET 1 880 680
WIRE 240 -48 176 -48
WIRE 352 -48 304 -48
WIRE 176 48 176 -48
WIRE 240 48 176 48
WIRE 352 48 352 -48
WIRE 352 48 320 48
WIRE 176 160 176 48
WIRE 176 160 48 160
WIRE 240 160 176 160
WIRE 352 176 352 48
WIRE 352 176 304 176
WIRE 432 176 352 176
WIRE 240 192 176 192
WIRE 176 272 176 192
WIRE 176 272 144 272
WIRE 208 272 176 272
WIRE 320 272 288 272
WIRE 176 304 176 272
WIRE 320 304 320 272
FLAG -336 80 0
FLAG -336 0 3V3
FLAG 272 144 3V3
FLAG 272 208 0
FLAG 176 304 0
FLAG 64 272 3V3
FLAG 320 304 0
FLAG 432 176 Vout
FLAG -32 160 Iin
FLAG -320 208 Iin
FLAG -320 288 0
SYMBOL res 64 144 R90
WINDOW 0 0 56 VBottom 2
WINDOW 3 32 56 VTop 2
SYMATTR InstName R1
SYMATTR Value 1k
SYMBOL res 336 32 R90
WINDOW 0 0 56 VBottom 2
WINDOW 3 32 56 VTop 2
SYMATTR InstName R2
SYMATTR Value 10Meg
SYMBOL cap 304 -64 R90
WINDOW 0 0 32 VBottom 2
WINDOW 3 32 32 VTop 2
SYMATTR InstName C1
SYMATTR Value 68p
SYMBOL voltage -336 -16 R0
WINDOW 123 0 0 Left 0
WINDOW 39 0 0 Left 0
SYMATTR InstName V1
SYMATTR Value 3.3
SYMBOL res 160 256 R90
WINDOW 0 0 56 VBottom 2
WINDOW 3 32 56 VTop 2
SYMATTR InstName R3
SYMATTR Value 10k
SYMBOL res 304 256 R90
WINDOW 0 0 56 VBottom 2
WINDOW 3 32 56 VTop 2
SYMATTR InstName R4
SYMATTR Value 10k
SYMBOL OpAmps\\opamp2 272 112 R0
SYMATTR InstName U1
SYMATTR Value TLV6742
SYMBOL current -320 288 R180
WINDOW 0 24 80 Left 2
WINDOW 3 24 0 Left 2
WINDOW 123 0 0 Left 0
WINDOW 39 0 0 Left 0
SYMATTR InstName I1
SYMATTR Value PULSE(0 3u 20m 1m 1m 3m 50m 1)
TEXT -352 -128 Left 2 !.lib tlv6742.lib
TEXT -368 336 Left 2 !.tran 100m
