Version 4
SHEET 1 1472 680
WIRE 240 -48 176 -48
WIRE 352 -48 304 -48
WIRE 176 48 176 -48
WIRE 240 48 176 48
WIRE 352 48 352 -48
WIRE 352 48 320 48
WIRE 768 64 752 64
WIRE 784 64 768 64
WIRE 768 80 768 64
WIRE 912 80 912 0
WIRE 992 80 912 80
WIRE 1104 80 1072 80
WIRE 1248 80 1104 80
WIRE -224 128 -384 128
WIRE 1104 144 1104 80
WIRE 1136 144 1104 144
WIRE 48 160 32 160
WIRE 176 160 176 48
WIRE 176 160 128 160
WIRE 240 160 176 160
WIRE 1328 160 1328 80
WIRE 1328 160 1200 160
WIRE 352 176 352 48
WIRE 352 176 304 176
WIRE 432 176 352 176
WIRE 672 176 672 64
WIRE 672 176 640 176
WIRE 864 176 864 64
WIRE 1136 176 864 176
WIRE 240 192 176 192
WIRE -384 208 -384 128
WIRE -352 208 -384 208
WIRE -224 224 -224 128
WIRE -224 224 -288 224
WIRE -176 224 -224 224
WIRE 672 224 672 176
WIRE 688 224 672 224
WIRE 768 224 752 224
WIRE 784 224 768 224
WIRE 864 224 864 176
WIRE 864 224 848 224
WIRE -352 240 -432 240
WIRE 176 240 176 192
WIRE 768 240 768 224
WIRE -432 336 -432 240
WIRE -432 336 -464 336
WIRE -400 336 -432 336
WIRE -288 336 -320 336
WIRE -288 368 -288 336
WIRE -240 496 -304 496
WIRE -304 512 -304 496
WIRE -304 512 -400 512
FLAG -624 80 0
FLAG -624 0 3V3
FLAG 272 144 3V3
FLAG 272 208 0
FLAG -544 336 3V3
FLAG -288 368 0
FLAG 432 176 Vout_charge
FLAG -320 192 3V3
FLAG -320 256 0
FLAG -176 224 Vcc/2
FLAG 176 240 Vcc/2
FLAG -400 512 S+
FLAG -32 160 S+
FLAG 768 144 0
FLAG 1168 192 0
FLAG 1168 128 3V3
FLAG 912 0 Vcc/2
FLAG 1392 240 0
FLAG 1392 160 Vout
FLAG 768 320 0
FLAG -400 592 0
FLAG -304 576 0
FLAG -240 576 0
SYMBOL res 144 144 R90
WINDOW 0 0 56 VBottom 2
WINDOW 3 32 56 VTop 2
SYMATTR InstName R1
SYMATTR Value 39.2k
SYMBOL res 336 32 R90
WINDOW 0 0 56 VBottom 2
WINDOW 3 32 56 VTop 2
SYMATTR InstName R2
SYMATTR Value 240Meg
SYMBOL cap 304 -64 R90
WINDOW 0 0 32 VBottom 2
WINDOW 3 32 32 VTop 2
SYMATTR InstName C1
SYMATTR Value 68p
SYMBOL voltage -624 -16 R0
WINDOW 123 0 0 Left 0
WINDOW 39 0 0 Left 0
SYMATTR InstName V1
SYMATTR Value 3.3
SYMBOL res -448 320 R90
WINDOW 0 0 56 VBottom 2
WINDOW 3 32 56 VTop 2
SYMATTR InstName R3
SYMATTR Value 10k
SYMBOL res -304 320 R90
WINDOW 0 0 56 VBottom 2
WINDOW 3 32 56 VTop 2
SYMATTR InstName R4
SYMATTR Value 10k
SYMBOL OpAmps\\opamp2 272 112 R0
SYMATTR InstName U1
SYMATTR Value TLV6742
SYMBOL OpAmps\\opamp2 -320 160 R0
SYMATTR InstName U2
SYMATTR Value TLV6742
SYMBOL voltage -400 496 R0
WINDOW 123 0 0 Left 0
WINDOW 39 0 0 Left 0
SYMATTR InstName V2
SYMATTR Value SINE(0 1.3m 1k 1m 0 .1m 1)
SYMBOL cap 32 144 R90
WINDOW 0 0 32 VBottom 2
WINDOW 3 32 32 VTop 2
SYMATTR InstName C2
SYMATTR Value 390p
SYMBOL res 768 48 R90
WINDOW 0 0 56 VBottom 2
WINDOW 3 32 56 VTop 2
SYMATTR InstName R5
SYMATTR Value 7.5k
SYMBOL cap 752 80 R0
SYMATTR InstName C3
SYMATTR Value 1n
SYMBOL res 880 48 R90
WINDOW 0 0 56 VBottom 2
WINDOW 3 32 56 VTop 2
SYMATTR InstName R6
SYMATTR Value 7.5k
SYMBOL cap 752 208 R90
WINDOW 0 0 32 VBottom 2
WINDOW 3 32 32 VTop 2
SYMATTR InstName C4
SYMATTR Value 1n
SYMBOL cap 848 208 R90
WINDOW 0 0 32 VBottom 2
WINDOW 3 32 32 VTop 2
SYMATTR InstName C5
SYMATTR Value 1n
SYMBOL res 752 224 R0
SYMATTR InstName R7
SYMATTR Value 1.8k
SYMBOL OpAmps\\opamp2 1168 96 R0
SYMATTR InstName U3
SYMATTR Value TLV6742
SYMBOL res 1088 64 R90
WINDOW 0 0 56 VBottom 2
WINDOW 3 32 56 VTop 2
SYMATTR InstName R8
SYMATTR Value 110
SYMBOL res 1344 64 R90
WINDOW 0 0 56 VBottom 2
WINDOW 3 32 56 VTop 2
SYMATTR InstName R9
SYMATTR Value 11k
SYMBOL cap 1392 144 R90
WINDOW 0 0 32 VBottom 2
WINDOW 3 32 32 VTop 2
SYMATTR InstName C6
SYMATTR Value 100n
SYMBOL res 1376 144 R0
SYMATTR InstName R10
SYMATTR Value 158k
SYMBOL cap -320 512 R0
SYMATTR InstName C7
SYMATTR Value 1n
SYMBOL res -256 480 R0
SYMATTR InstName R11
SYMATTR Value 1k
TEXT -352 -128 Left 2 !.lib tlv6742.lib
TEXT -656 400 Left 2 !.tran 20m
